10

 O    0.000000000000   -0.000000000000    1.324246645610
 C    0.000000000000    0.000000000000    0.092391347226
 C   -1.285817462548    0.000000000000   -0.702807948221
 C    1.285817462548   -0.000000000000   -0.702807948221
 H   -2.136621754373    0.000000000000   -0.027072876648
 H   -1.328687519407   -0.880407776916   -1.343776496469
 H   -1.328687519407    0.880407776916   -1.343776496469
 H    2.136621754373   -0.000000000000   -0.027072876648
 H    1.328687519407    0.880407776916   -1.343776496469
 H    1.328687519407   -0.880407776916   -1.343776496469
10

 O    0.000000000000    0.000000000000    1.323277818197
 C    0.000000000000    0.000000000000    0.092189285866
 C   -1.285551890131    0.000000000000   -0.701602607390
 C    1.285551890131   -0.000000000000   -0.701602607390
 H   -2.136038489754    0.000000000000   -0.026291122017
 H   -1.324886180985   -0.878172543241   -1.346917925036
 H   -1.324886180985    0.878172543241   -1.346917925036
 H    2.136038489754   -0.000000000000   -0.026291122017
 H    1.324886180985    0.878172543241   -1.346917925036
 H    1.324886180985   -0.878172543241   -1.346917925036
10

 O    0.000000000000   -0.000000000000    1.323182834258
 C    0.000000000000   -0.000000000000    0.092014456328
 C   -1.285577903938    0.000000000000   -0.701468549153
 C    1.285577903938   -0.000000000000   -0.701468549153
 H   -2.135913944817    0.000000000000   -0.026008320302
 H   -1.325025156653   -0.878227773620   -1.346959250945
 H   -1.325025156653    0.878227773620   -1.346959250945
 H    2.135913944817   -0.000000000000   -0.026008320302
 H    1.325025156653    0.878227773620   -1.346959250945
 H    1.325025156653   -0.878227773620   -1.346959250945
10

 O    0.000000000000   -0.000000000000    1.323136120905
 C    0.000000000000   -0.000000000000    0.091921492457
 C   -1.285605629117    0.000000000000   -0.701409741301
 C    1.285605629117   -0.000000000000   -0.701409741301
 H   -2.135879906343    0.000000000000   -0.025864640552
 H   -1.325159752249   -0.878218751521   -1.346918192905
 H   -1.325159752249    0.878218751521   -1.346918192905
 H    2.135879906343   -0.000000000000   -0.025864640552
 H    1.325159752249    0.878218751521   -1.346918192905
 H    1.325159752249   -0.878218751521   -1.346918192905
