4
Frame1
 O    0.630721071085   -0.324607156389   -0.003488896864
 O   -0.630721071085    0.324607156389   -0.003488896864
 H    1.200071476450    0.300980857923   -0.424357519334
 H   -1.200071476450   -0.300980857923   -0.424357519334
4
Frame2
 O    0.619372634413   -0.309156671276    0.046326728173
 O   -0.619372634413    0.309156671276    0.046326728173
 H    1.133733449599    0.279292450602   -0.474173144371
 H   -1.133733449599   -0.279292450602   -0.474173144371
4
Frame3
 O    0.617157817684   -0.322853373776    0.013231369443
 O   -0.617157817685    0.322853373777    0.013231369444
 H    1.170873258549    0.296528385856   -0.441077785642
 H   -1.170873258548   -0.296528385857   -0.441077785642
4
Frame4
 O    0.627420628031   -0.309228711422    0.043663021136
 O   -0.627420628020    0.309228711415    0.043663021126
 H    1.157075030569    0.283022640483   -0.471509437329
 H   -1.157075030580   -0.283022640476   -0.471509437329
4
Frame5
 O    0.621002407083   -0.316454641442    0.027769078814
 O   -0.621002407127    0.316454641470    0.027769078857
 H    1.162299986616    0.289934185858   -0.455615495032
 H   -1.162299986573   -0.289934185886   -0.455615495036
4
Frame6
 O    0.621084813819   -0.316253404022    0.028444515212
 O   -0.621084813271    0.316253403661    0.028444514706
 H    1.161926382265    0.289711035803   -0.456290931179
 H   -1.161926382813   -0.289711035443   -0.456290931135
4
Frame7
 O    0.621097643972   -0.316238984095    0.028449113255
 O   -0.621097644170    0.316238984214    0.028449113434
 H    1.161925681118    0.289699660674   -0.456295529537
 H   -1.161925680920   -0.289699660793   -0.456295529548
